** nmosfet: benchmarking implementation of bsim4.8.0

** circuit description **
m1 2 1 0 b p1 l=0.09u w=10.0u nf=5 rgeomod=1 geomod=0
*+sa=0.5u sb=20u geomod=0 sd=0.1u
vgs 1 0 -1.2 
vds 2 0 -1.2 
vb b 0 0.0 

.dc vds 0.0 -1.2 -0.02 vgs -0.2 -1.2 -0.2

.print dc i(vds)

.include modelcard.pmos
.inc modflags.inc
.option post=2 nomod numdgt=7 ingold=2
.end
