** nmosfet: benchmarking implementation of bsim4.8.0

** circuit description **
xm1 2 1 0 0 n1 l=0.09u w=10.0u rgeomod=1
vgs 1 0 1.2 
vds 2 0 1.2 

.dc vds 0 1.2 0.02 vgs 0 1.2 0.2

.temp -55.0

.print dc v(1) i(vds)

.include modelcard_va.nmos
.inc modflags.inc
.option post=2 nomod numdgt=7 ingold=2
.end
