** PMOSFET: Benchmarking Implementation of BSIM4.8.0

** Circuit Description **
xm1 2 1 0 3 n1 L=0.09u W=10.0u rgeoMod=1
vgs 1 0 1.2
vds 2 0 0.1
vbs 3 0 0.0

.dc vgs 0.6 1.2 0.02 vbs 0 -1.2 -0.3

.temp -55.0

.print dc v(2) i(vds)

.include modelcard_va.nmos 
.inc modflags.inc
.option post=2 nomod numdgt=7 ingold=2
.end
